*Heading
** Job name: Matrix_Inclusion Model name: Model-1
** Generated by: Abaqus/CAE 6.13-3
*Preprint, echo=NO, model=NO, history=NO, contact=NO
**
** PARTS
**
*Part, name=Part-3
*Node
      1,          10.,           5.,           5.
      2,           0.,           5.,           5.
      3,           0.,           5.,           0.
      4,          10.,           5.,           0.
      5,          10.,           0.,           5.
      6,           0.,           0.,           5.
      7,          10.,           0.,           0.
      8,           0.,           0.,           4.
      9,           4.,           0.,           0.
     10,           0.,           4.,           0.
     11,           0.,           0.,           0.
     12,          10.,          7.5,          4.5
     13,          10.,          10.,           5.
     14,          10.,          10.,           0.
     15,           0.,          10.,           5.
     16,           0.,          10.,           0.
     17,           0.,          7.5,          4.5
     18,          10.,          7.5,          9.5
     19,          10.,          10.,          10.
     20,          10.,          2.5,          9.5
** ... 2353 like lines cut
*Element, type=C3D8R
  1,  397,  398, 1629, 1573,   32,   31,  333,  332
  2,  398,  399, 1630, 1629,   31,   30,  334,  333
  3,  399,  400, 1631, 1630,   30,   29,  335,  334
  4,  400,  401, 1632, 1631,   29,   28,  336,  335
  5,  401,  402, 1633, 1632,   28,   27,  337,  336
  6,  402,  403, 1634, 1633,   27,   26,  338,  337
  7,  403,   40,  377, 1634,   26,    1,   39,  338
  8, 1573, 1629, 1635, 1574,  332,  333,  340,  339
  9, 1629, 1630, 1636, 1635,  333,  334,  341,  340
 10, 1630, 1631, 1637, 1636,  334,  335,  342,  341
 11, 1631, 1632, 1638, 1637,  335,  336,  343,  342
 12, 1632, 1633, 1639, 1638,  336,  337,  344,  343
 13, 1633, 1634, 1640, 1639,  337,  338,  345,  344
 14, 1634,  377,  378, 1640,  338,   39,   38,  345
 15, 1574, 1635, 1575, 1554,  339,  340,  347,  346
 16, 1635, 1636, 1576, 1575,  340,  341,  348,  347
 17, 1636, 1637, 1577, 1576,  341,  342,  349,  348
 18, 1637, 1638, 1578, 1577,  342,  343,  350,  349
 19, 1638, 1639, 1579, 1578,  343,  344,  351,  350
 20, 1639, 1640, 1580, 1579,  344,  345,  352,  351
** ... 1634 like lines cut
*Nset, nset=Set-1
    8,    9,   10,   11,   92,   93,   94,   95,   96,   97,   98,   99,  100,  101,  102,  103
  104,  105,  106,  107,  108,  109,  110,  111,  112,  113,  114,  115,  522,  523,  524,  525
  526,  527,  528,  529,  530,  531,  532,  533,  534,  535,  536,  537,  538,  539,  540,  541
  542,  543,  544,  545,  546,  547,  548,  549,  550,  551,  552,  553,  554,  555,  556,  557
  558,  559,  560,  561,  562,  563,  564,  565,  566,  567, 1717, 1718, 1719, 1720, 1721, 1722
 1723, 1724, 1725, 1726, 1727, 1728, 1729, 1730, 1731, 1732, 1733, 1734, 1735, 1736, 1737, 1738
 1739, 1740, 1741, 1742, 1743
*Elset, elset=Set-1, generate
 301,  354,    1
*Nset, nset=Set-2
    1,    2,    3,    4,    5,    6,    7,    8,    9,   10,   12,   13,   14,   15,   16,   17
   18,   19,   20,   21,   22,   23,   24,   25,   26,   27,   28,   29,   30,   31,   32,   33
   34,   35,   36,   37,   38,   39,   40,   41,   42,   43,   44,   45,   46,   47,   48,   49
   50,   51,   52,   53,   54,   55,   56,   57,   58,   59,   60,   61,   62,   63,   64,   65
   66,   67,   68,   69,   70,   71,   72,   73,   74,   75,   76,   77,   78,   79,   80,   81
   82,   83,   84,   85,   86,   87,   88,   89,   90,   91,   92,   93,   94,   95,   96,   97
   98,   99,  100,  101,  102,  103,  104,  105,  106,  116,  117,  118,  119,  120,  121,  122
  123,  124,  125,  126,  127,  128,  129,  130,  131,  132,  133,  134,  135,  136,  137,  138
  139,  140,  141,  142,  143,  144,  145,  146,  147,  148,  149,  150,  151,  152,  153,  154
  155,  156,  157,  158,  159,  160,  161,  162,  163,  164,  165,  166,  167,  168,  169,  170
  171,  172,  173,  174,  175,  176,  177,  178,  179,  180,  181,  182,  183,  184,  185,  186
  187,  188,  189,  190,  191,  192,  193,  194,  195,  196,  197,  198,  199,  200,  201,  202
  203,  204,  205,  206,  207,  208,  209,  210,  211,  212,  213,  214,  215,  216,  217,  218
  219,  220,  221,  222,  223,  224,  225,  226,  227,  228,  229,  230,  231,  232,  233,  234
  235,  236,  237,  238,  239,  240,  241,  242,  243,  244,  245,  246,  247,  248,  249,  250
  251,  252,  253,  254,  255,  256,  257,  258,  259,  260,  261,  262,  263,  264,  265,  266
  267,  268,  269,  270,  271,  272,  273,  274,  275,  276,  277,  278,  279,  280,  281,  282
  283,  284,  285,  286,  287,  288,  289,  290,  291,  292,  293,  294,  295,  296,  297,  298
  299,  300,  301,  302,  303,  304,  305,  306,  307,  308,  309,  310,  311,  312,  313,  314
  315,  316,  317,  318,  319,  320,  321,  322,  323,  324,  325,  326,  327,  328,  329,  330
** ... 125 like lines cut
*Elset, elset=Set-2
    1,    2,    3,    4,    5,    6,    7,    8,    9,   10,   11,   12,   13,   14,   15,   16
   17,   18,   19,   20,   21,   22,   23,   24,   25,   26,   27,   28,   29,   30,   31,   32
   33,   34,   35,   36,   37,   38,   39,   40,   41,   42,   43,   44,   45,   46,   47,   48
   49,   50,   51,   52,   53,   54,   55,   56,   57,   58,   59,   60,   61,   62,   63,   64
   65,   66,   67,   68,   69,   70,   71,   72,   73,   74,   75,   76,   77,   78,   79,   80
   81,   82,   83,   84,   85,   86,   87,   88,   89,   90,   91,   92,   93,   94,   95,   96
   97,   98,   99,  100,  101,  102,  103,  104,  105,  106,  107,  108,  109,  110,  111,  112
  113,  114,  115,  116,  117,  118,  119,  120,  121,  122,  123,  124,  125,  126,  127,  128
  129,  130,  131,  132,  133,  134,  135,  136,  137,  138,  139,  140,  141,  142,  143,  144
  145,  146,  147,  148,  149,  150,  151,  152,  153,  154,  155,  156,  157,  158,  159,  160
  161,  162,  163,  164,  165,  166,  167,  168,  169,  170,  171,  172,  173,  174,  175,  176
  177,  178,  179,  180,  181,  182,  183,  184,  185,  186,  187,  188,  189,  190,  191,  192
  193,  194,  195,  196,  197,  198,  199,  200,  201,  202,  203,  204,  205,  206,  207,  208
  209,  210,  211,  212,  213,  214,  215,  216,  217,  218,  219,  220,  221,  222,  223,  224
  225,  226,  227,  228,  229,  230,  231,  232,  233,  234,  235,  236,  237,  238,  239,  240
  241,  242,  243,  244,  245,  246,  247,  248,  249,  250,  251,  252,  253,  254,  255,  256
  257,  258,  259,  260,  261,  262,  263,  264,  265,  266,  267,  268,  269,  270,  271,  272
  273,  274,  275,  276,  277,  278,  279,  280,  281,  282,  283,  284,  285,  286,  287,  288
  289,  290,  291,  292,  293,  294,  295,  296,  297,  298,  299,  300,  355,  356,  357,  358
  359,  360,  361,  362,  363,  364,  365,  366,  367,  368,  369,  370,  371,  372,  373,  374
** ... 80 like lines cut
** Section: Section-2
*Solid Section, elset=Set-2, material=Material-2
,
** Section: Section-1
*Solid Section, elset=Set-1, material=Material-1
,
*End Part
**  
**
** ASSEMBLY
**
*Assembly, name=Assembly
**  
*Instance, name=Part-3-1, part=Part-3
*End Instance
**  
*Nset, nset=Set-1, instance=Part-3-1
   1,   5,  13,  18,  19,  20,  21,  22,  23,  40,  41,  42,  43, 126, 127, 128
 129, 130, 131, 132, 202, 203, 204, 205, 206, 207, 208, 209, 210, 211, 212, 213
 214, 215, 216, 217, 218, 219, 220, 221, 222, 223, 224, 225, 226, 227, 228, 229
 230, 231, 232, 233, 234, 235, 236, 237, 238, 239, 240, 241, 242, 243, 244, 245
 246, 247, 248, 249, 250, 251, 252, 253, 254, 255, 256, 257, 283, 284, 285, 286
 287, 288, 289, 290, 291, 292, 293, 919, 920, 921, 922, 923, 924, 925, 926, 927
 928, 929, 930, 931, 932, 933, 934, 935, 936, 937, 938, 939, 940, 941, 942, 943
 944, 945, 946, 947, 948, 949, 950, 951, 952, 953, 954, 955, 956, 957, 958, 959
 960, 961, 962, 963, 964, 965, 966, 967, 968, 969, 970
*Elset, elset=Set-1, instance=Part-3-1
  755,  756,  757,  758,  759,  760,  761,  762,  763,  764,  765,  766,  767,  768,  769,  770
  771,  772,  773,  774,  775,  776,  777,  778,  779,  780,  781,  782,  783,  784,  785,  786
  787,  788,  789,  790,  791,  792,  793,  794,  795,  796,  797,  798,  799,  800,  801,  802
  803,  804,  805,  806,  807,  808,  809,  810,  811,  812,  813,  814,  815,  816,  817,  818
  819,  820,  821,  822,  823,  824,  825,  826,  827,  828,  829,  830,  831,  832,  833,  834
  835,  836,  837,  838,  839,  840,  841,  842,  843,  844, 1565, 1572, 1573, 1576, 1582, 1583
 1588, 1589, 1600, 1614, 1629, 1630
*Nset, nset=Set-2, instance=Part-3-1
 19, 21
*End Assembly
** 
** MATERIALS
** 
*Material, name=Material-1
*Elastic
2000., 0.29
*Material, name=Material-2
*Elastic
2000., 0.29
** ----------------------------------------------------------------
** 
** STEP: Step-1
** 
*Step, name=Step-1, nlgeom=YES
*Static
1., 1., 1e-05, 1.
** 
** OUTPUT REQUESTS
** 
*Restart, write, frequency=0
** 
** FIELD OUTPUT: F-Output-1
** 
*Output, field, variable=PRESELECT
** 
** HISTORY OUTPUT: H-Output-1
** 
*Output, history, variable=PRESELECT
*End Step
