*Heading
** Job name: Matrix_inclusion Model name: Model-1
** Generated by: Abaqus/CAE 6.13-3
*Preprint, echo=NO, model=NO, history=NO, contact=NO
**
** PARTS
**
*Part, name=Part-2
*Node
      1,           0.,           0.,           0.
      2,           0.,           0.,  0.552551806
      3,           0.,           0.,   1.10512209
      4,           0.,           0.,   1.65802252
      5,  0.536124051,           0.,           0.
      6,  0.530579209,           0.,  0.552204609
      7,  0.519280672,           0.,   1.10479748
      8,  0.502112031,           0.,   1.65823913
      9,           0.,           0.,   2.21140575
     10,           0.,           0.,   2.76576138
     11,           0.,           0.,   3.32146168
     12,  0.480382234,           0.,   2.21186042
     13,  0.453371614,           0.,   2.76639795
     14,  0.424727857,           0.,    3.3223443
     15,           0.,           0.,   4.98902464
     16,           0.,           0.,   3.87802029
     17,           0.,           0.,   4.43433237
     18,  0.368457913,           0.,   4.98878002
     19,  0.727078795,           0.,   4.99029064
     20,  0.397954404,           0.,   3.87899804
** ... 466 like lines cut
*Element, type=C3D8R
 1, 410, 418, 415, 409, 454, 462, 461, 452
 2, 418, 419, 416, 415, 462, 463, 460, 461
 3, 419, 420, 417, 416, 463, 464, 459, 460
 4, 420, 422, 421, 417, 464, 466, 465, 459
 5, 326, 331, 418, 410, 366, 371, 462, 454
 6, 331, 332, 419, 418, 371, 372, 463, 462
 7, 332, 333, 420, 419, 372, 373, 464, 463
 8, 333, 337, 422, 420, 373, 378, 466, 464
 9, 325, 334, 331, 326, 365, 374, 371, 366
10, 334, 335, 332, 331, 374, 375, 372, 371
11, 335, 336, 333, 332, 375, 376, 373, 372
12, 336, 338, 337, 333, 376, 377, 378, 373
13, 330, 261, 334, 325, 370, 299, 374, 365
14, 261, 260, 335, 334, 299, 298, 375, 374
15, 260, 259, 336, 335, 298, 297, 376, 375
16, 259, 264, 338, 336, 297, 302, 377, 376
17, 259, 256, 263, 264, 297, 296, 301, 302
18, 260, 257, 256, 259, 298, 295, 296, 297
19, 261, 258, 257, 260, 299, 294, 295, 298
20, 330, 251, 258, 261, 370, 289, 294, 299
** ... 193 like lines cut
*Nset, nset=Set-1, generate
   1,  486,    1
*Elset, elset=Set-1, generate
   1,  213,    1
*Nset, nset=Set-4
   1,   2,   3,   4,   5,   6,   7,   8,   9,  10,  11,  12,  13,  14,  15,  16
  17,  18,  19,  20,  21,  22,  23,  24,  25,  26,  27,  28,  29,  30,  31,  32
  33,  34,  35,  36,  37,  38,  39,  40,  41,  42,  43,  44,  45,  46,  47,  48
  49,  50,  51,  52,  53,  54,  55,  56,  57,  58,  59,  60,  61,  62,  63,  64
  65,  66,  67,  68,  69,  70,  71,  72,  73,  74,  75,  76,  77,  78,  79,  80
  81,  82,  83,  84,  85,  86,  87,  88,  89,  90,  91,  92,  93,  94,  95,  96
  97,  98,  99, 100, 101, 102, 103, 104, 105, 106, 107, 108, 109, 110, 111, 112
 113, 114, 115, 116, 117, 118, 119, 120, 121, 122, 123, 124, 125, 126, 127, 128
 129, 130, 131, 132, 133, 134, 135, 136, 137, 138, 139, 140, 141, 142, 143, 144
 145, 146, 147, 148, 149, 150, 151, 152, 153, 154, 155, 156, 157, 158, 159, 160
 161, 162, 163, 164, 165, 166, 167, 168, 169, 170, 171, 172, 173, 174, 175, 176
 177, 178, 179, 180, 181, 182, 183, 184, 185, 186, 187, 188, 189, 190, 191, 192
 193, 194, 195, 196, 197, 198, 199, 200, 201, 202, 203, 204, 205, 206, 207, 208
 209, 210, 211, 212, 213, 214, 215, 216, 217, 218, 219, 220, 221, 222, 223, 224
 225, 226, 227, 228, 229, 230, 231, 232, 233, 234, 235, 236, 237, 238, 239, 240
 241, 242, 243, 244, 245, 246, 247, 248, 249, 250, 251, 252, 253, 254, 255, 256
 257, 258, 262, 263, 265, 266, 267, 271, 272, 273, 274, 275, 276, 277, 278, 279
 280, 281, 282, 283, 284, 285, 286, 287, 288, 289, 290, 291, 292, 293, 294, 295
 296, 300, 301, 303, 304, 305, 309, 310, 311, 312, 313, 314, 315, 316, 317, 318
 319, 320, 321, 322, 323, 324, 327, 328, 329, 346, 347, 350, 351, 352, 353, 354
** ... 5 like lines cut
*Elset, elset=Set-4, generate
  49,  213,    1
*Elset, elset=Set-3
  1,  2,  3,  4,  5,  6,  7,  8,  9, 10, 11, 12, 13, 14, 15, 16
 17, 18, 19, 20, 21, 22, 23, 25, 26, 27, 28, 29, 30, 31, 32, 33
 34, 35, 36, 37, 38, 39, 40, 41, 42, 43, 44, 45, 46, 47, 48
*Elset, elset=Set-5
 24,
*Elset, elset=Set-6
  49,  50,  51,  52,  53,  54,  55,  56,  57,  58,  59,  60,  61,  62,  63,  64
  65,  66,  67,  68,  69,  70,  71,  72,  73,  74,  75,  76,  77,  78,  79,  80
  81,  82,  83,  84,  85,  86,  87,  88,  90,  91,  92,  93,  94,  95,  96,  97
  98,  99, 100, 101, 102, 103, 104, 105, 106, 107, 108, 109, 110, 111, 112, 113
 114, 115, 116, 117, 118, 119, 120, 121, 122, 123, 124, 125, 126, 127, 128, 129
 130, 131, 132, 133, 134, 135, 136, 137, 138, 139, 140, 141, 142, 143, 144, 145
 146, 147, 148, 149, 150, 151, 152, 153, 154, 155, 156, 157, 158, 159, 160, 161
 162, 163, 164, 165, 166, 167, 168, 169, 170, 171, 172, 173, 174, 175, 176, 177
 178, 179, 180, 181, 182, 183, 184, 185, 186, 187, 188, 189, 190, 191, 192, 193
 194, 195, 196, 197, 198, 199, 200, 201, 202, 203, 204, 205, 206, 207, 208, 209
 210, 211, 212, 213
*Elset, elset=Set-7
 89,
** Section: Inclusion
*Solid Section, elset=Set-3, material=Material-1
,
** Section: Inclusion
*Solid Section, elset=Set-5, material=Material-1
,
** Section: Matrix
*Solid Section, elset=Set-6, material=Material-2
,
** Section: Matrix
*Solid Section, elset=Set-7, material=Material-2
,
*End Part
**  
**
** ASSEMBLY
**
*Assembly, name=Assembly
**  
*Instance, name=Part-2-1, part=Part-2
*End Instance
**  
*End Assembly
** 
** MATERIALS
** 
*Material, name=Material-1
*Elastic
3., 0.3
*Material, name=Material-2
*Elastic
4., 0.4
