*Heading
** Job name: piezo_stacked Model name: Model-1
** Generated by: Abaqus/CAE 6.13-3
*Preprint, echo=NO, model=NO, history=NO, contact=NO
**
** PARTS
**
*Part, name=Part-1
*Node
      1,           5.,           5.,          0.5
      2,           5.,           0.,          0.5
      3,           5.,           0.,           0.
      4,           5.,           5.,           0.
      5,           0.,           0.,          0.5
      6,           0.,           0.,           0.
      7,           0.,           5.,           0.
      8,           0.,           5.,          0.5
      9,           5.,           5.,           1.
     10,           5.,           0.,           1.
     11,           0.,           5.,           1.
     12,           0.,           0.,           1.
     13,           5.,          4.5,          0.5
     14,           5.,           4.,          0.5
     15,           5.,          3.5,          0.5
     16,           5.,           3.,          0.5
     17,           5.,          2.5,          0.5
     18,           5.,           2.,          0.5
     19,           5.,          1.5,          0.5
     20,           5.,           1.,          0.5
** ... 343 like lines cut
*Element, type=C3D8R
  1,  66, 121, 202,  49,   1,  13,  30,   4
  2, 121, 122, 203, 202,  13,  14,  29,  30
  3, 122, 123, 204, 203,  14,  15,  28,  29
  4, 123, 124, 205, 204,  15,  16,  27,  28
  5, 124, 125, 206, 205,  16,  17,  26,  27
  6, 125, 126, 207, 206,  17,  18,  25,  26
  7, 126, 127, 208, 207,  18,  19,  24,  25
  8, 127, 128, 209, 208,  19,  20,  23,  24
  9, 128, 129, 210, 209,  20,  21,  22,  23
 10, 129,  76,  75, 210,  21,   2,   3,  22
 11,  65, 130, 211,  50,  66, 121, 202,  49
 12, 130, 131, 212, 211, 121, 122, 203, 202
 13, 131, 132, 213, 212, 122, 123, 204, 203
 14, 132, 133, 214, 213, 123, 124, 205, 204
 15, 133, 134, 215, 214, 124, 125, 206, 205
 16, 134, 135, 216, 215, 125, 126, 207, 206
 17, 135, 136, 217, 216, 126, 127, 208, 207
 18, 136, 137, 218, 217, 127, 128, 209, 208
 19, 137, 138, 219, 218, 128, 129, 210, 209
 20, 138,  77,  74, 219, 129,  76,  75, 210
** ... 180 like lines cut
*Nset, nset=Set-1
   1,   2,   3,   4,   5,   6,   7,   8,  13,  14,  15,  16,  17,  18,  19,  20
  21,  22,  23,  24,  25,  26,  27,  28,  29,  30,  31,  32,  33,  34,  35,  36
  37,  38,  39,  40,  41,  42,  43,  44,  45,  46,  47,  48,  49,  50,  51,  52
  53,  54,  55,  56,  57,  58,  59,  60,  61,  62,  63,  64,  65,  66,  67,  68
  69,  70,  71,  72,  73,  74,  75,  76,  77,  78,  79,  80,  81,  82,  83,  84
 121, 122, 123, 124, 125, 126, 127, 128, 129, 130, 131, 132, 133, 134, 135, 136
 137, 138, 139, 140, 141, 142, 143, 144, 145, 146, 147, 148, 149, 150, 151, 152
 153, 154, 155, 156, 157, 158, 159, 160, 161, 162, 163, 164, 165, 166, 167, 168
 169, 170, 171, 172, 173, 174, 175, 176, 177, 178, 179, 180, 181, 182, 183, 184
 185, 186, 187, 188, 189, 190, 191, 192, 193, 194, 195, 196, 197, 198, 199, 200
 201, 202, 203, 204, 205, 206, 207, 208, 209, 210, 211, 212, 213, 214, 215, 216
 217, 218, 219, 220, 221, 222, 223, 224, 225, 226, 227, 228, 229, 230, 231, 232
 233, 234, 235, 236, 237, 238, 239, 240, 241, 242, 243, 244, 245, 246, 247, 248
 249, 250, 251, 252, 253, 254, 255, 256, 257, 258, 259, 260, 261, 262, 263, 264
 265, 266, 267, 268, 269, 270, 271, 272, 273, 274, 275, 276, 277, 278, 279, 280
 281, 282
*Elset, elset=Set-1, generate
   1,  100,    1
*Nset, nset=Set-2
   1,   2,   5,   8,   9,  10,  11,  12,  13,  14,  15,  16,  17,  18,  19,  20
  21,  31,  32,  33,  34,  35,  36,  37,  38,  39,  58,  59,  60,  61,  62,  63
  64,  65,  66,  76,  77,  78,  79,  80,  81,  82,  83,  84,  85,  86,  87,  88
  89,  90,  91,  92,  93,  94,  95,  96,  97,  98,  99, 100, 101, 102, 103, 104
 105, 106, 107, 108, 109, 110, 111, 112, 113, 114, 115, 116, 117, 118, 119, 120
 121, 122, 123, 124, 125, 126, 127, 128, 129, 130, 131, 132, 133, 134, 135, 136
 137, 138, 139, 140, 141, 142, 143, 144, 145, 146, 147, 148, 149, 150, 151, 152
 153, 154, 155, 156, 157, 158, 159, 160, 161, 162, 163, 164, 165, 166, 167, 168
 169, 170, 171, 172, 173, 174, 175, 176, 177, 178, 179, 180, 181, 182, 183, 184
 185, 186, 187, 188, 189, 190, 191, 192, 193, 194, 195, 196, 197, 198, 199, 200
 201, 283, 284, 285, 286, 287, 288, 289, 290, 291, 292, 293, 294, 295, 296, 297
 298, 299, 300, 301, 302, 303, 304, 305, 306, 307, 308, 309, 310, 311, 312, 313
 314, 315, 316, 317, 318, 319, 320, 321, 322, 323, 324, 325, 326, 327, 328, 329
 330, 331, 332, 333, 334, 335, 336, 337, 338, 339, 340, 341, 342, 343, 344, 345
 346, 347, 348, 349, 350, 351, 352, 353, 354, 355, 356, 357, 358, 359, 360, 361
 362, 363
*Elset, elset=Set-2, generate
 101,  200,    1
** Section: Section-1
*Solid Section, elset=Set-1, material=Material-1
1.,
** Section: Section-2
*Solid Section, elset=Set-2, material=Material-2
,
*End Part
**  
**
** ASSEMBLY
**
*Assembly, name=Assembly
**  
*Instance, name=Part-1-1, part=Part-1
*End Instance
**  
*End Assembly
** 
** MATERIALS
** 
*Material, name=Material-1
*Elastic
21., 0.2
*Material, name=Material-2
*Elastic
21., 0.4
