*Heading
** Job name: Cantilever Model name: Model-1
** Generated by: Abaqus/CAE 6.13-3
*Preprint, echo=NO, model=NO, history=NO, contact=NO
**
** PARTS
**
*Part, name=Part-1
*Node
      1,         100.,           1.,          0.5
      2,         100.,           0.,          0.5
      3,         100.,           0.,           0.
      4,         100.,           1.,           0.
      5,           0.,           0.,          0.5
      6,           0.,           0.,           0.
      7,           0.,           1.,           0.
      8,           0.,           1.,          0.5
      9,         100.,           1.,           1.
     10,         100.,           0.,           1.
     11,           0.,           1.,           1.
     12,           0.,           0.,           1.
     13,         100.,          0.5,          0.5
     14,         100.,          0.5,           0.
     15,           0.,          0.5,          0.5
     16,           0.,          0.5,           0.
     17,         99.5,           1.,           0.
     18,          99.,           1.,           0.
     19,         98.5,           1.,           0.
     20,          98.,           1.,           0.
** ... 1789 like lines cut
*Element, type=C3D8R
  1,  414, 1213, 1412,   17,    1,   13,   14,    4
  2, 1213,  614,  613, 1412,   13,    2,    3,   14
  3,  413, 1214, 1413,   18,  414, 1213, 1412,   17
  4, 1214,  615,  612, 1413, 1213,  614,  613, 1412
  5,  412, 1215, 1414,   19,  413, 1214, 1413,   18
  6, 1215,  616,  611, 1414, 1214,  615,  612, 1413
  7,  411, 1216, 1415,   20,  412, 1215, 1414,   19
  8, 1216,  617,  610, 1415, 1215,  616,  611, 1414
  9,  410, 1217, 1416,   21,  411, 1216, 1415,   20
 10, 1217,  618,  609, 1416, 1216,  617,  610, 1415
 11,  409, 1218, 1417,   22,  410, 1217, 1416,   21
 12, 1218,  619,  608, 1417, 1217,  618,  609, 1416
 13,  408, 1219, 1418,   23,  409, 1218, 1417,   22
 14, 1219,  620,  607, 1418, 1218,  619,  608, 1417
 15,  407, 1220, 1419,   24,  408, 1219, 1418,   23
 16, 1220,  621,  606, 1419, 1219,  620,  607, 1418
 17,  406, 1221, 1420,   25,  407, 1220, 1419,   24
 18, 1221,  622,  605, 1420, 1220,  621,  606, 1419
 19,  405, 1222, 1421,   26,  406, 1221, 1420,   25
 20, 1222,  623,  604, 1421, 1221,  622,  605, 1420
** ... 780 like lines cut
*Nset, nset=Set-1
    1,    2,    3,    4,    5,    6,    7,    8,   13,   14,   15,   16,   17,   18,   19,   20
   21,   22,   23,   24,   25,   26,   27,   28,   29,   30,   31,   32,   33,   34,   35,   36
   37,   38,   39,   40,   41,   42,   43,   44,   45,   46,   47,   48,   49,   50,   51,   52
   53,   54,   55,   56,   57,   58,   59,   60,   61,   62,   63,   64,   65,   66,   67,   68
   69,   70,   71,   72,   73,   74,   75,   76,   77,   78,   79,   80,   81,   82,   83,   84
   85,   86,   87,   88,   89,   90,   91,   92,   93,   94,   95,   96,   97,   98,   99,  100
  101,  102,  103,  104,  105,  106,  107,  108,  109,  110,  111,  112,  113,  114,  115,  116
  117,  118,  119,  120,  121,  122,  123,  124,  125,  126,  127,  128,  129,  130,  131,  132
  133,  134,  135,  136,  137,  138,  139,  140,  141,  142,  143,  144,  145,  146,  147,  148
  149,  150,  151,  152,  153,  154,  155,  156,  157,  158,  159,  160,  161,  162,  163,  164
  165,  166,  167,  168,  169,  170,  171,  172,  173,  174,  175,  176,  177,  178,  179,  180
  181,  182,  183,  184,  185,  186,  187,  188,  189,  190,  191,  192,  193,  194,  195,  196
  197,  198,  199,  200,  201,  202,  203,  204,  205,  206,  207,  208,  209,  210,  211,  212
  213,  214,  215,  216,  217,  218,  219,  220,  221,  222,  223,  224,  225,  226,  227,  228
  229,  230,  231,  232,  233,  234,  235,  236,  237,  238,  239,  240,  241,  242,  243,  244
  245,  246,  247,  248,  249,  250,  251,  252,  253,  254,  255,  256,  257,  258,  259,  260
  261,  262,  263,  264,  265,  266,  267,  268,  269,  270,  271,  272,  273,  274,  275,  276
  277,  278,  279,  280,  281,  282,  283,  284,  285,  286,  287,  288,  289,  290,  291,  292
  293,  294,  295,  296,  297,  298,  299,  300,  301,  302,  303,  304,  305,  306,  307,  308
  309,  310,  311,  312,  313,  314,  315,  316,  317,  318,  319,  320,  321,  322,  323,  324
** ... 56 like lines cut
*Elset, elset=Set-1, generate
   1,  400,    1
*Nset, nset=Set-2
    1,    2,    5,    8,    9,   10,   11,   12,   13,   15,  216,  217,  218,  219,  220,  221
  222,  223,  224,  225,  226,  227,  228,  229,  230,  231,  232,  233,  234,  235,  236,  237
  238,  239,  240,  241,  242,  243,  244,  245,  246,  247,  248,  249,  250,  251,  252,  253
  254,  255,  256,  257,  258,  259,  260,  261,  262,  263,  264,  265,  266,  267,  268,  269
  270,  271,  272,  273,  274,  275,  276,  277,  278,  279,  280,  281,  282,  283,  284,  285
  286,  287,  288,  289,  290,  291,  292,  293,  294,  295,  296,  297,  298,  299,  300,  301
  302,  303,  304,  305,  306,  307,  308,  309,  310,  311,  312,  313,  314,  315,  316,  317
  318,  319,  320,  321,  322,  323,  324,  325,  326,  327,  328,  329,  330,  331,  332,  333
  334,  335,  336,  337,  338,  339,  340,  341,  342,  343,  344,  345,  346,  347,  348,  349
  350,  351,  352,  353,  354,  355,  356,  357,  358,  359,  360,  361,  362,  363,  364,  365
  366,  367,  368,  369,  370,  371,  372,  373,  374,  375,  376,  377,  378,  379,  380,  381
  382,  383,  384,  385,  386,  387,  388,  389,  390,  391,  392,  393,  394,  395,  396,  397
  398,  399,  400,  401,  402,  403,  404,  405,  406,  407,  408,  409,  410,  411,  412,  413
  414,  614,  615,  616,  617,  618,  619,  620,  621,  622,  623,  624,  625,  626,  627,  628
  629,  630,  631,  632,  633,  634,  635,  636,  637,  638,  639,  640,  641,  642,  643,  644
  645,  646,  647,  648,  649,  650,  651,  652,  653,  654,  655,  656,  657,  658,  659,  660
  661,  662,  663,  664,  665,  666,  667,  668,  669,  670,  671,  672,  673,  674,  675,  676
  677,  678,  679,  680,  681,  682,  683,  684,  685,  686,  687,  688,  689,  690,  691,  692
  693,  694,  695,  696,  697,  698,  699,  700,  701,  702,  703,  704,  705,  706,  707,  708
  709,  710,  711,  712,  713,  714,  715,  716,  717,  718,  719,  720,  721,  722,  723,  724
** ... 56 like lines cut
*Elset, elset=Set-2, generate
 401,  800,    1
** Section: Section-1
*Solid Section, elset=Set-1, material=Material-1
,
** Section: Section-2
*Solid Section, elset=Set-2, material=Material-2
,
*End Part
**  
**
** ASSEMBLY
**
*Assembly, name=Assembly
**  
*Instance, name=Part-1-1, part=Part-1
*End Instance
**  
*End Assembly
** 
** MATERIALS
** 
*Material, name=Material-1
*Elastic
100., 0.2
*Material, name=Material-2
*Elastic
2000., 0.3
