*Heading
** Job name: Cube_um Model name: Model-1
** Generated by: Abaqus/CAE 6.13-3
*Preprint, echo=NO, model=NO, history=NO, contact=NO
**
** PARTS
**
*Part, name=Part-1
*Node
      1,           1.,           1.,          0.5
      2,           1.,           0.,          0.5
      3,           1.,           0.,           0.
      4,           1.,           1.,           0.
      5,           0.,           0.,          0.5
      6,           0.,           0.,           0.
      7,           0.,           1.,           0.
      8,           0.,           1.,          0.5
      9,           1.,           1.,           1.
     10,           1.,           0.,           1.
     11,           0.,           1.,           1.
     12,           0.,           0.,           1.
     13,           1.,  0.800000012,          0.5
     14,           1.,  0.600000024,          0.5
     15,           1.,  0.400000006,          0.5
     16,           1.,  0.200000003,          0.5
     17,           1.,           0.,  0.333333343
     18,           1.,           0.,  0.166666672
     19,           1.,  0.200000003,           0.
     20,           1.,  0.400000006,           0.
** ... 232 like lines cut
*Element, type=C3D8R
 1,  44, 109, 189,  93,   1,  13,  77,  24
 2, 109, 110, 190, 189,  13,  14,  78,  77
 3, 110, 111, 191, 190,  14,  15,  79,  78
 4, 111, 112, 192, 191,  15,  16,  80,  79
 5, 112,  49, 101, 192,  16,   2,  17,  80
 6,  93, 189, 193,  94,  24,  77,  81,  23
 7, 189, 190, 194, 193,  77,  78,  82,  81
 8, 190, 191, 195, 194,  78,  79,  83,  82
 9, 191, 192, 196, 195,  79,  80,  84,  83
10, 192, 101, 102, 196,  80,  17,  18,  84
11,  94, 193, 125,  37,  23,  81,  22,   4
12, 193, 194, 126, 125,  81,  82,  21,  22
13, 194, 195, 127, 126,  82,  83,  20,  21
14, 195, 196, 128, 127,  83,  84,  19,  20
15, 196, 102,  48, 128,  84,  18,   3,  19
16,  43, 113, 197,  95,  44, 109, 189,  93
17, 113, 114, 198, 197, 109, 110, 190, 189
18, 114, 115, 199, 198, 110, 111, 191, 190
19, 115, 116, 200, 199, 111, 112, 192, 191
20, 116,  50, 103, 200, 112,  49, 101, 192
** ... 130 like lines cut
*Nset, nset=Set-1
   1,   2,   3,   4,   5,   6,   7,   8,  13,  14,  15,  16,  17,  18,  19,  20
  21,  22,  23,  24,  25,  26,  27,  28,  29,  30,  31,  32,  33,  34,  35,  36
  37,  38,  39,  40,  41,  42,  43,  44,  45,  46,  47,  48,  49,  50,  51,  52
  77,  78,  79,  80,  81,  82,  83,  84,  85,  86,  87,  88,  89,  90,  91,  92
  93,  94,  95,  96,  97,  98,  99, 100, 101, 102, 103, 104, 105, 106, 107, 108
 109, 110, 111, 112, 113, 114, 115, 116, 117, 118, 119, 120, 121, 122, 123, 124
 125, 126, 127, 128, 129, 130, 131, 132, 133, 134, 135, 136, 137, 138, 139, 140
 189, 190, 191, 192, 193, 194, 195, 196, 197, 198, 199, 200, 201, 202, 203, 204
 205, 206, 207, 208, 209, 210, 211, 212, 213, 214, 215, 216, 217, 218, 219, 220
*Elset, elset=Set-1, generate
  1,  75,   1
*Nset, nset=Set-2
   1,   2,   5,   8,   9,  10,  11,  12,  13,  14,  15,  16,  25,  26,  27,  28
  41,  42,  43,  44,  49,  50,  51,  52,  53,  54,  55,  56,  57,  58,  59,  60
  61,  62,  63,  64,  65,  66,  67,  68,  69,  70,  71,  72,  73,  74,  75,  76
 109, 110, 111, 112, 113, 114, 115, 116, 117, 118, 119, 120, 121, 122, 123, 124
 141, 142, 143, 144, 145, 146, 147, 148, 149, 150, 151, 152, 153, 154, 155, 156
 157, 158, 159, 160, 161, 162, 163, 164, 165, 166, 167, 168, 169, 170, 171, 172
 173, 174, 175, 176, 177, 178, 179, 180, 181, 182, 183, 184, 185, 186, 187, 188
 221, 222, 223, 224, 225, 226, 227, 228, 229, 230, 231, 232, 233, 234, 235, 236
 237, 238, 239, 240, 241, 242, 243, 244, 245, 246, 247, 248, 249, 250, 251, 252
*Elset, elset=Set-2, generate
  76,  150,    1
** Section: Section-1
*Solid Section, elset=Set-1, material=Material-1
,
** Section: Section-2
*Solid Section, elset=Set-2, material=Material-2
,
*End Part
**  
**
** ASSEMBLY
**
*Assembly, name=Assembly
**  
*Instance, name=Part-1-1, part=Part-1
*End Instance
**  
*End Assembly
** 
** MATERIALS
** 
*Material, name=Material-1
*Elastic
1., 0.1
*Material, name=Material-2
*Elastic
2., 0.2
