*Heading
** Job name: Matrix_inclusion Model name: Model-1
** Generated by: Abaqus/CAE 6.13-3
*Preprint, echo=NO, model=NO, history=NO, contact=NO
**
** PARTS
**
*Part, name=Part-3
*Node
      1,          2.5,           1.,           5.
      2,           5.,           1.,           5.
      3,           5.,           1.,          2.5
      4,           5.,           0.,           5.
      5,          2.5,           0.,           5.
      6,           5.,           0.,          2.5
      7,           5.,           1.,          7.5
      8,           5.,           0.,          7.5
      9,           5.,           1.,           0.
     10,           0.,           1.,           0.
     11,           0.,           1.,          10.
     12,           5.,           1.,          10.
     13,           5.,           0.,          10.
     14,           0.,           0.,          10.
     15,           0.,           0.,           0.
     16,           5.,           0.,           0.
     17,   2.93970728,           1.,           5.
     18,   3.35555768,           1.,           5.
     19,   3.76333761,           1.,           5.
     20,   4.17264223,           1.,           5.
** ... 784 like lines cut
*Element, type=C3D8R
 1, 177, 180,  31,  30, 621, 624, 223, 224
 2, 180, 179,  32,  31, 624, 623, 222, 223
 3, 179, 178,  33,  32, 623, 622, 221, 222
 4, 178,  17,   1,  33, 622, 229,  36, 221
 5, 178, 185,  18,  17, 622, 629, 230, 229
 6, 185, 186,  19,  18, 629, 630, 231, 230
 7, 186, 187,  20,  19, 630, 631, 232, 231
 8, 187, 188,  21,  20, 631, 632, 233, 232
 9, 188,  22,   2,  21, 632, 220,  34, 233
10, 179, 189, 185, 178, 623, 633, 629, 622
11, 189, 190, 186, 185, 633, 634, 630, 629
12, 190, 191, 187, 186, 634, 635, 631, 630
13, 191, 192, 188, 187, 635, 636, 632, 631
14, 192,  23,  22, 188, 636, 219, 220, 632
15, 180, 193, 189, 179, 624, 637, 633, 623
16, 193, 194, 190, 189, 637, 638, 634, 633
17, 194, 195, 191, 190, 638, 639, 635, 634
18, 195, 196, 192, 191, 639, 640, 636, 635
19, 196,  24,  23, 192, 640, 218, 219, 636
20, 177, 184, 193, 180, 621, 628, 637, 624
** ... 452 like lines cut
*Nset, nset=Set-1, generate
   1,  804,    1
*Elset, elset=Set-1, generate
   1,  472,    1
*Nset, nset=Set-4
   1,   3,   5,   6,   7,   8,   9,  10,  11,  12,  13,  14,  15,  16,  26,  27
  28,  29,  30,  31,  32,  33,  35,  36,  42,  43,  44,  45,  46,  47,  48,  49
  54,  55,  56,  57,  58,  59,  60,  61,  66,  71,  72,  73,  74,  75,  76,  77
  78,  79,  80,  81,  82,  83,  84,  85,  86,  87,  88,  89,  90,  91,  92,  93
  94,  95,  96,  97,  98,  99, 100, 101, 102, 103, 104, 105, 106, 107, 108, 109
 110, 111, 112, 113, 114, 115, 116, 117, 118, 119, 120, 121, 122, 123, 124, 125
 126, 127, 128, 129, 130, 131, 132, 133, 134, 135, 136, 137, 138, 139, 140, 141
 142, 143, 144, 145, 146, 147, 148, 149, 150, 151, 152, 153, 154, 155, 156, 157
 158, 159, 160, 161, 162, 163, 164, 165, 166, 167, 168, 169, 170, 171, 172, 173
 174, 175, 176, 221, 222, 223, 224, 225, 226, 227, 228, 274, 275, 276, 277, 278
 279, 280, 281, 286, 287, 288, 289, 290, 291, 292, 293, 294, 295, 296, 297, 298
 299, 300, 301, 302, 303, 304, 305, 306, 307, 308, 309, 310, 311, 312, 313, 314
 315, 316, 317, 318, 319, 320, 321, 322, 323, 324, 325, 326, 327, 328, 329, 330
 331, 332, 333, 334, 335, 336, 337, 338, 339, 340, 341, 342, 343, 344, 345, 346
 347, 348, 349, 350, 351, 352, 353, 354, 355, 356, 357, 358, 359, 360, 361, 362
 363, 364, 365, 366, 367, 368, 369, 370, 371, 372, 373, 374, 375, 376, 377, 378
 379, 380, 381, 382, 383, 384, 385, 386, 387, 388, 389, 390, 391, 392, 393, 394
 395, 396, 397, 398, 399, 400, 401, 402, 403, 404, 405, 406, 407, 408, 409, 410
 411, 412, 413, 414, 415, 416, 417, 418, 419, 420, 421, 422, 423, 424, 425, 426
 427, 428, 429, 430, 431, 432, 433, 434, 435, 436, 437, 438, 439, 440, 441, 442
** ... 21 like lines cut
*Elset, elset=Set-4, generate
 117,  472,    1
*Nset, nset=Set-5
   1,   3,   5,   6,   7,   8,   9,  10,  11,  12,  13,  14,  15,  16,  26,  27
  28,  29,  30,  31,  32,  33,  35,  36,  42,  43,  44,  45,  46,  47,  48,  49
  54,  55,  56,  57,  58,  59,  60,  61,  66,  71,  72,  73,  74,  75,  76,  77
  78,  79,  80,  81,  82,  83,  84,  85,  86,  87,  88,  89,  90,  91,  92,  93
  94,  95,  96,  97,  98,  99, 100, 101, 102, 103, 104, 105, 106, 107, 108, 109
 110, 111, 112, 113, 114, 115, 116, 117, 118, 119, 120, 121, 122, 123, 124, 125
 126, 127, 128, 129, 130, 131, 132, 133, 134, 135, 136, 137, 138, 139, 140, 141
 142, 143, 144, 145, 146, 147, 148, 149, 150, 151, 152, 153, 154, 155, 156, 157
 158, 159, 160, 161, 162, 163, 164, 165, 166, 167, 168, 169, 170, 171, 172, 173
 174, 175, 176, 221, 222, 223, 224, 225, 226, 227, 228, 274, 275, 276, 277, 278
 279, 280, 281, 286, 287, 288, 289, 290, 291, 292, 293, 294, 295, 296, 297, 298
 299, 300, 301, 302, 303, 304, 305, 306, 307, 308, 309, 310, 311, 312, 313, 314
 315, 316, 317, 318, 319, 320, 321, 322, 323, 324, 325, 326, 327, 328, 329, 330
 331, 332, 333, 334, 335, 336, 337, 338, 339, 340, 341, 342, 343, 344, 345, 346
 347, 348, 349, 350, 351, 352, 353, 354, 355, 356, 357, 358, 359, 360, 361, 362
 363, 364, 365, 366, 367, 368, 369, 370, 371, 372, 373, 374, 375, 376, 377, 378
 379, 380, 381, 382, 383, 384, 385, 386, 387, 388, 389, 390, 391, 392, 393, 394
 395, 396, 397, 398, 399, 400, 401, 402, 403, 404, 405, 406, 407, 408, 409, 410
 411, 412, 413, 414, 415, 416, 417, 418, 419, 420, 421, 422, 423, 424, 425, 426
 427, 428, 429, 430, 431, 432, 433, 434, 435, 436, 437, 438, 439, 440, 441, 442
** ... 21 like lines cut
*Elset, elset=Set-5, generate
 117,  472,    1
*Nset, nset=Set-6
   1,   2,   3,   4,   5,   6,   7,   8,  17,  18,  19,  20,  21,  22,  23,  24
  25,  26,  27,  28,  29,  30,  31,  32,  33,  34,  35,  36,  37,  38,  39,  40
  41,  42,  43,  44,  45,  46,  47,  48,  49,  50,  51,  52,  53,  54,  55,  56
  57,  58,  59,  60,  61,  62,  63,  64,  65,  66,  67,  68,  69,  70,  71,  72
  73,  74,  75,  76,  77,  78, 177, 178, 179, 180, 181, 182, 183, 184, 185, 186
 187, 188, 189, 190, 191, 192, 193, 194, 195, 196, 197, 198, 199, 200, 201, 202
 203, 204, 205, 206, 207, 208, 209, 210, 211, 212, 213, 214, 215, 216, 217, 218
 219, 220, 221, 222, 223, 224, 225, 226, 227, 228, 229, 230, 231, 232, 233, 234
 235, 236, 237, 238, 239, 240, 241, 242, 243, 244, 245, 246, 247, 248, 249, 250
 251, 252, 253, 254, 255, 256, 257, 258, 259, 260, 261, 262, 263, 264, 265, 266
 267, 268, 269, 270, 271, 272, 273, 274, 275, 276, 277, 278, 279, 280, 281, 282
 283, 284, 285, 621, 622, 623, 624, 625, 626, 627, 628, 629, 630, 631, 632, 633
 634, 635, 636, 637, 638, 639, 640, 641, 642, 643, 644, 645, 646, 647, 648, 649
 650, 651, 652, 653, 654, 655, 656, 657, 658, 659, 660
*Elset, elset=Set-6, generate
   1,  116,    1
** Section: Inclusion
*Solid Section, elset=Set-6, material=Material-1
,
** Section: Matrix
*Solid Section, elset=Set-5, material=Material-2
,
*End Part
**  
**
** ASSEMBLY
**
*Assembly, name=Assembly
**  
*Instance, name=Part-3-1, part=Part-3
*End Instance
**  
*End Assembly
** 
** MATERIALS
** 
*Material, name=Material-1
*Elastic
3., 0.3
*Material, name=Material-2
*Elastic
4., 0.4
