*Heading
** Job name: piezo Model name: Model-1
** Generated by: Abaqus/CAE 6.13-3
*Preprint, echo=NO, model=NO, history=NO, contact=NO
**
** PARTS
**
*Part, name=Part-1
*Node
      1,           5.,           5.,           1.
      2,           5.,          4.5,           1.
      3,           5.,           4.,           1.
      4,           5.,          3.5,           1.
      5,           5.,           3.,           1.
      6,           5.,          2.5,           1.
      7,           5.,           2.,           1.
      8,           5.,          1.5,           1.
      9,           5.,           1.,           1.
     10,           5.,          0.5,           1.
     11,           5.,           0.,           1.
     12,           5.,           5.,          0.5
     13,           5.,          4.5,          0.5
     14,           5.,           4.,          0.5
     15,           5.,          3.5,          0.5
     16,           5.,           3.,          0.5
     17,           5.,          2.5,          0.5
     18,           5.,           2.,          0.5
     19,           5.,          1.5,          0.5
     20,           5.,           1.,          0.5
** ... 343 like lines cut
*Element, type=C3D8R
  1,  34,  35,  46,  45,   1,   2,  13,  12
  2,  35,  36,  47,  46,   2,   3,  14,  13
  3,  36,  37,  48,  47,   3,   4,  15,  14
  4,  37,  38,  49,  48,   4,   5,  16,  15
  5,  38,  39,  50,  49,   5,   6,  17,  16
  6,  39,  40,  51,  50,   6,   7,  18,  17
  7,  40,  41,  52,  51,   7,   8,  19,  18
  8,  41,  42,  53,  52,   8,   9,  20,  19
  9,  42,  43,  54,  53,   9,  10,  21,  20
 10,  43,  44,  55,  54,  10,  11,  22,  21
 11,  45,  46,  57,  56,  12,  13,  24,  23
 12,  46,  47,  58,  57,  13,  14,  25,  24
 13,  47,  48,  59,  58,  14,  15,  26,  25
 14,  48,  49,  60,  59,  15,  16,  27,  26
 15,  49,  50,  61,  60,  16,  17,  28,  27
 16,  50,  51,  62,  61,  17,  18,  29,  28
 17,  51,  52,  63,  62,  18,  19,  30,  29
 18,  52,  53,  64,  63,  19,  20,  31,  30
 19,  53,  54,  65,  64,  20,  21,  32,  31
 20,  54,  55,  66,  65,  21,  22,  33,  32
** ... 180 like lines cut
*Nset, nset=Set-1, generate
   1,  363,    1
*Elset, elset=Set-1, generate
   1,  200,    1
** Section: Section-1
*Solid Section, elset=Set-1, material=Material-1
1.,
*End Part
**  
**
** ASSEMBLY
**
*Assembly, name=Assembly
**  
*Instance, name=Part-1-1, part=Part-1
*End Instance
**  
*End Assembly
** 
** MATERIALS
** 
*Material, name=Material-1
*Elastic
21., 0.2
